#======================================================================

# CRYSTAL DATA

#----------------------------------------------------------------------

data_VESTA_phase_1


_pd_phase_name                         'isodistort-output'
_cell_length_a                         3.88656
_cell_length_b                         3.88656
_cell_length_c                         12.59750
_cell_angle_alpha                      90
_cell_angle_beta                       90
_cell_angle_gamma                      90
_symmetry_space_group_name_H-M         'P 4/n m m'
_symmetry_Int_Tables_number            129

loop_
_symmetry_equiv_pos_as_xyz
   'x, y, z'
   '-x, -y, -z'
   '-x+1/2, -y+1/2, z'
   'x+1/2, y+1/2, -z'
   '-y+1/2, x, z'
   'y+1/2, -x, -z'
   'y, -x+1/2, z'
   '-y, x+1/2, -z'
   '-x, y+1/2, -z'
   'x, -y+1/2, z'
   'x+1/2, -y, -z'
   '-x+1/2, y, z'
   'y+1/2, x+1/2, -z'
   '-y+1/2, -x+1/2, z'
   '-y, -x, -z'
   'y, x, z'

loop_
   _atom_site_label
   _atom_site_occupancy
   _atom_site_fract_x
   _atom_site_fract_y
   _atom_site_fract_z
   _atom_site_adp_type
   _atom_site_B_iso_or_equiv
   _atom_site_type_symbol
   Sr1_1      1.0     0.250000      0.250000      0.896230     Biso  1.000000 Sr
   Sr1_2      1.0     0.250000      0.250000      0.603770     Biso  1.000000 Sr
   Ti1_1      1.0     0.250000      0.250000      0.232040     Biso  1.000000 Ti
   O1_1       1.0     0.750000      0.250000      0.750000     Biso  1.000000 O
   O2_1       1.0     0.250000      0.250000      0.092800     Biso  1.000000 O
   F          1.0     0.250000      0.250000      0.407200     Biso  1.000000 F
